testcases/opendss/p1rhs0_1247--p1rdt6163/Lines.dss
New Line.l(r:p1rdt5274lv-p1rlv10789) Units=km Length=0.04693630000000001 bus1=p1rdt5274lv.1.2 bus2=p1rlv10789.1.2 switch=n enabled=y phases=2 Linecode=1P_OH_AL_4/0_Zuzara_0_416_0_2_2

New Line.l(r:p1rdm11029-p1rlv10870) Units=km Length=0.0451948 bus1=p1rdm11029.1.2 bus2=p1rlv10870.1.2 switch=n enabled=y phases=2 Linecode=1P_OH_AL_4/0_Zuzara_0_416_0_2_2

New Line.l(r:p1rdm11029-p1rdt5274lv) Units=km Length=0.0343363 bus1=p1rdt5274lv.1.2 bus2=p1rdm11029.1.2 switch=n enabled=y phases=2 Linecode=1P_OH_AL_4/0_Zuzara_0_416_0_2_2

New Line.l(r:p1rdm11030-p1rlv10906) Units=km Length=0.0753593 bus1=p1rdm11030.1.2 bus2=p1rlv10906.1.2 switch=n enabled=y phases=2 Linecode=1P_OH_AL_4/0_Zuzara_0_416_0_2_2

New Line.l(r:p1rdm11030-p1rlv10967) Units=km Length=0.0220049 bus1=p1rdm11030.1.2 bus2=p1rlv10967.1.2 switch=n enabled=y phases=2 Linecode=1P_OH_AL_2/0_Rucina_0_416_0_2_2

New Line.l(r:p1rdm11030-p1rdt5274lv) Units=km Length=0.0198706 bus1=p1rdt5274lv.1.2 bus2=p1rdm11030.1.2 switch=n enabled=y phases=2 Linecode=1P_OH_AL_2/0_Rucina_0_416_0_2_2

New Line.l(r:p1rdt5295lv-p1rlv10838) Units=km Length=0.0616016 bus1=p1rdt5295lv.1.2 bus2=p1rlv10838.1.2 switch=n enabled=y phases=2 Linecode=1P_OH_AL_4/0_Zuzara_0_416_0_2_2

New Line.l(r:p1rdt5295lv-p1rlv10875) Units=km Length=0.0200125 bus1=p1rdt5295lv.1.2 bus2=p1rlv10875.1.2 switch=n enabled=y phases=2 Linecode=1P_OH_AL_2/0_Rucina_0_416_0_2_2

New Line.l(r:p1rdt5297lv-p1rlv10991) Units=km Length=0.0661293 bus1=p1rdt5297lv.1.2 bus2=p1rlv10991.1.2 switch=n enabled=y phases=2 Linecode=1P_OH_AL_4/0_Zuzara_0_416_0_2_2

New Line.l(r:p1rdt5297lv-p1rlv11073) Units=km Length=0.101997 bus1=p1rdt5297lv.1.2 bus2=p1rlv11073.1.2 switch=n enabled=y phases=2 Linecode=1P_OH_AL_4/0_Zuzara_0_416_0_2_2

New Line.l(r:p1rdm11092-p1rlv10842) Units=km Length=0.0688144 bus1=p1rdm11092.1.2 bus2=p1rlv10842.1.2 switch=n enabled=y phases=2 Linecode=1P_OH_AL_4/0_Zuzara_0_416_0_2_2

New Line.l(r:p1rdm11092-p1rlv24815) Units=km Length=0.08593140000000002 bus1=p1rdm11092.1.2 bus2=p1rlv24815.1.2 switch=n enabled=y phases=2 Linecode=1P_OH_AL_4/0_Zuzara_0_416_0_2_2

New Line.l(r:p1rdm11092-p1rdt5297lv) Units=km Length=0.018984200000000003 bus1=p1rdt5297lv.1.2 bus2=p1rdm11092.1.2 switch=n enabled=y phases=2 Linecode=1P_OH_AL_2/0_Rucina_0_416_0_2_2

New Line.l(r:p1rdt5345lv-p1rlv10962) Units=km Length=0.0106148 bus1=p1rdt5345lv.1.2 bus2=p1rlv10962.1.2 switch=n enabled=y phases=2 Linecode=1P_OH_AL_2/0_Rucina_0_416_0_2_2

New Line.l(r:p1rdt5360lv-p1rlv11001) Units=km Length=0.001 bus1=p1rdt5360lv.1.2 bus2=p1rlv11001.1.2 switch=n enabled=y phases=2 Linecode=1P_OH_AL_4_Periwinkle_0_416_0_2_2

New Line.l(r:p1rdt5376lv-p1rlv11081) Units=km Length=0.0240385 bus1=p1rdt5376lv.1.2 bus2=p1rlv11081.1.2 switch=n enabled=y phases=2 Linecode=1P_OH_AL_2/0_Rucina_0_416_0_2_2

New Line.l(r:p1rdm11263-p1rlv11087) Units=km Length=0.00855082 bus1=p1rdm11263.1.2 bus2=p1rlv11087.1.2 switch=n enabled=y phases=2 Linecode=1P_OH_AL_2/0_Rucina_0_416_0_2_2

New Line.l(r:p1rdm11265-p1rlv24852) Units=km Length=0.027597000000000003 bus1=p1rdm11265.1.2 bus2=p1rlv24852.1.2 switch=n enabled=y phases=2 Linecode=1P_OH_AL_4/0_Zuzara_0_416_0_2_2

New Line.l(r:p1rdm11263-p1rdm11265) Units=km Length=0.0367697 bus1=p1rdm11263.1.2 bus2=p1rdm11265.1.2 switch=n enabled=y phases=2 Linecode=1P_OH_AL_4/0_Zuzara_0_416_0_2_2

New Line.l(r:p1rdm11263-p1rdt5380lv) Units=km Length=0.018865 bus1=p1rdt5380lv.1.2 bus2=p1rdm11263.1.2 switch=n enabled=y phases=2 Linecode=1P_OH_AL_2/0_Rucina_0_416_0_2_2

New Line.l(r:p1rdm11264-p1rlv11088) Units=km Length=0.0182528 bus1=p1rdm11264.1.2 bus2=p1rlv11088.1.2 switch=n enabled=y phases=2 Linecode=1P_OH_AL_2/0_Rucina_0_416_0_2_2

New Line.l(r:p1rdm11264-p1rdt5380lv) Units=km Length=0.0377374 bus1=p1rdt5380lv.1.2 bus2=p1rdm11264.1.2 switch=n enabled=y phases=2 Linecode=1P_OH_AL_4/0_Zuzara_0_416_0_2_2

New Line.l(r:p1rdt5393lv-p1rlv11104) Units=km Length=0.014411 bus1=p1rdt5393lv.1.2 bus2=p1rlv11104.1.2 switch=n enabled=y phases=2 Linecode=1P_OH_AL_2/0_Rucina_0_416_0_2_2

New Line.l(r:p1rdt6020lv-p1rlv12509) Units=km Length=0.0525905 bus1=p1rdt6020lv.1.2 bus2=p1rlv12509.1.2 switch=n enabled=y phases=2 Linecode=1P_OH_AL_4/0_Zuzara_0_416_0_2_2

New Line.l(r:p1rdt6020lv-p1rlv12514) Units=km Length=0.0840656 bus1=p1rdt6020lv.1.2 bus2=p1rlv12514.1.2 switch=n enabled=y phases=2 Linecode=1P_OH_AL_4/0_Zuzara_0_416_0_2_2

New Line.l(r:p1rdt6020lv-p1rlv12530) Units=km Length=0.13082300000000002 bus1=p1rdt6020lv.1.2 bus2=p1rlv12530.1.2 switch=n enabled=y phases=2 Linecode=1P_OH_AL_4/0_Zuzara_0_416_0_2_2

New Line.l(r:p1rdt6020lv-p1rlv12532) Units=km Length=0.0997248 bus1=p1rdt6020lv.1.2 bus2=p1rlv12532.1.2 switch=n enabled=y phases=2 Linecode=1P_OH_AL_4/0_Zuzara_0_416_0_2_2

New Line.l(r:p1rdt6020lv-p1rlv12546) Units=km Length=0.0950868 bus1=p1rdt6020lv.1.2 bus2=p1rlv12546.1.2 switch=n enabled=y phases=2 Linecode=1P_OH_AL_4/0_Zuzara_0_416_0_2_2

New Line.l(r:p1rdm12830-p1rlv12548) Units=km Length=0.0483541 bus1=p1rdm12830.1.2 bus2=p1rlv12548.1.2 switch=n enabled=y phases=2 Linecode=1P_OH_AL_4/0_Zuzara_0_416_0_2_2

New Line.l(r:p1rdm12830-p1rdt6020lv) Units=km Length=0.0358863 bus1=p1rdt6020lv.1.2 bus2=p1rdm12830.1.2 switch=n enabled=y phases=2 Linecode=1P_OH_AL_4/0_Zuzara_0_416_0_2_2

New Line.l(r:p1rdt6026lv-p1rlv12516) Units=km Length=0.00827278 bus1=p1rdt6026lv.1.2 bus2=p1rlv12516.1.2 switch=n enabled=y phases=2 Linecode=1P_OH_AL_2/0_Rucina_0_416_0_2_2

New Line.l(r:p1rdt6039lv-p1rlv12539) Units=km Length=0.0606407 bus1=p1rdt6039lv.1.2 bus2=p1rlv12539.1.2 switch=n enabled=y phases=2 Linecode=1P_OH_AL_4/0_Zuzara_0_416_0_2_2

New Line.l(r:p1rdt6163lv-p1rlv12890) Units=km Length=0.0232205 bus1=p1rdt6163lv.1.2 bus2=p1rlv12890.1.2 switch=n enabled=y phases=2 Linecode=1P_OH_AL_2/0_Rucina_0_416_0_2_2

New Line.l(r:p1rdm13186-p1rlv12880) Units=km Length=0.0207597 bus1=p1rdm13186.1.2 bus2=p1rlv12880.1.2 switch=n enabled=y phases=2 Linecode=1P_OH_AL_2/0_Rucina_0_416_0_2_2

New Line.l(r:p1rdm13190-p1rlv12960) Units=km Length=0.053657 bus1=p1rdm13190.1.2 bus2=p1rlv12960.1.2 switch=n enabled=y phases=2 Linecode=1P_OH_AL_4/0_Zuzara_0_416_0_2_2

New Line.l(r:p1rdm13189-p1rlv12946) Units=km Length=0.0145924 bus1=p1rdm13189.1.2 bus2=p1rlv12946.1.2 switch=n enabled=y phases=2 Linecode=1P_OH_AL_2/0_Rucina_0_416_0_2_2

New Line.l(r:p1rdm13189-p1rdm13190) Units=km Length=0.019597000000000003 bus1=p1rdm13190.1.2 bus2=p1rdm13189.1.2 switch=n enabled=y phases=2 Linecode=1P_OH_AL_2/0_Rucina_0_416_0_2_2

New Line.l(r:p1rdm13186-p1rdm13190) Units=km Length=0.0195926 bus1=p1rdm13186.1.2 bus2=p1rdm13190.1.2 switch=n enabled=y phases=2 Linecode=1P_OH_AL_2/0_Rucina_0_416_0_2_2

New Line.l(r:p1rdm13186-p1rdt6163lv) Units=km Length=0.019597000000000003 bus1=p1rdt6163lv.1.2 bus2=p1rdm13186.1.2 switch=n enabled=y phases=2 Linecode=1P_OH_AL_2/0_Rucina_0_416_0_2_2

New Line.l(r:p1rdm13188-p1rlv12927) Units=km Length=0.00987136 bus1=p1rdm13188.1.2 bus2=p1rlv12927.1.2 switch=n enabled=y phases=2 Linecode=1P_OH_AL_2/0_Rucina_0_416_0_2_2

New Line.l(r:p1rdm13185-p1rlv12833) Units=km Length=0.047301 bus1=p1rdm13185.1.2 bus2=p1rlv12833.1.2 switch=n enabled=y phases=2 Linecode=1P_OH_AL_4/0_Zuzara_0_416_0_2_2

New Line.l(r:p1rdm13185-p1rdm13188) Units=km Length=0.019597000000000003 bus1=p1rdm13188.1.2 bus2=p1rdm13185.1.2 switch=n enabled=y phases=2 Linecode=1P_OH_AL_2/0_Rucina_0_416_0_2_2

New Line.l(r:p1rdm13188-p1rdt6163lv) Units=km Length=0.0195836 bus1=p1rdt6163lv.1.2 bus2=p1rdm13188.1.2 switch=n enabled=y phases=2 Linecode=1P_OH_AL_2/0_Rucina_0_416_0_2_2

New Line.l(r:p1rdt6359lv-p1rlv20845) Units=km Length=0.028923100000000004 bus1=p1rdt6359lv.1.2 bus2=p1rlv20845.1.2 switch=n enabled=y phases=2 Linecode=1P_OH_AL_4/0_Zuzara_0_416_0_2_2

New Line.l(r:p1rdt6359lv-p1rlv20846) Units=km Length=0.0106645 bus1=p1rdt6359lv.1.2 bus2=p1rlv20846.1.2 switch=n enabled=y phases=2 Linecode=1P_OH_AL_2/0_Rucina_0_416_0_2_2

New Line.l(r:p1rdt6359lv-p1rlv20857) Units=km Length=0.0426376 bus1=p1rdt6359lv.1.2 bus2=p1rlv20857.1.2 switch=n enabled=y phases=2 Linecode=1P_OH_AL_4/0_Zuzara_0_416_0_2_2

New Line.l(r:p1rdm13564-p1rlv13204) Units=km Length=0.0077701 bus1=p1rdm13564.1.2 bus2=p1rlv13204.1.2 switch=n enabled=y phases=2 Linecode=1P_OH_AL_2/0_Rucina_0_416_0_2_2

New Line.l(r:p1rdm13564-p1rdt6359lv) Units=km Length=0.0185917 bus1=p1rdt6359lv.1.2 bus2=p1rdm13564.1.2 switch=n enabled=y phases=2 Linecode=1P_OH_AL_2/0_Rucina_0_416_0_2_2

New Line.l(r:p1rdm13565-p1rlv20833) Units=km Length=0.0106574 bus1=p1rdm13565.1.2 bus2=p1rlv20833.1.2 switch=n enabled=y phases=2 Linecode=1P_OH_AL_2/0_Rucina_0_416_0_2_2

New Line.l(r:p1rdm13565-p1rdt6359lv) Units=km Length=0.0185918 bus1=p1rdt6359lv.1.2 bus2=p1rdm13565.1.2 switch=n enabled=y phases=2 Linecode=1P_OH_AL_2/0_Rucina_0_416_0_2_2

New Line.l(r:p1rdt6360lv-p1rlv13205) Units=km Length=0.014501 bus1=p1rdt6360lv.1.2 bus2=p1rlv13205.1.2 switch=n enabled=y phases=2 Linecode=1P_OH_AL_2/0_Rucina_0_416_0_2_2

New Line.l(r:p1rdt6360lv-p1rlv13207) Units=km Length=0.0294567 bus1=p1rdt6360lv.1.2 bus2=p1rlv13207.1.2 switch=n enabled=y phases=2 Linecode=1P_OH_AL_4/0_Zuzara_0_416_0_2_2

New Line.l(r:p1rdt6623lv-p1rlv13869) Units=km Length=0.00867524 bus1=p1rdt6623lv.1.2 bus2=p1rlv13869.1.2 switch=n enabled=y phases=2 Linecode=1P_OH_AL_2/0_Rucina_0_416_0_2_2

New Line.l(r:p1rdt6623lv-p1rlv13906) Units=km Length=0.00867524 bus1=p1rdt6623lv.1.2 bus2=p1rlv13906.1.2 switch=n enabled=y phases=2 Linecode=1P_OH_AL_2/0_Rucina_0_416_0_2_2

New Line.l(r:p1rdt6625lv-p1rlv13871) Units=km Length=0.0220833 bus1=p1rdt6625lv.1.2 bus2=p1rlv13871.1.2 switch=n enabled=y phases=2 Linecode=1P_OH_AL_2/0_Rucina_0_416_0_2_2

New Line.l(r:p1rdt6625lv-p1rlv13920) Units=km Length=0.0220833 bus1=p1rdt6625lv.1.2 bus2=p1rlv13920.1.2 switch=n enabled=y phases=2 Linecode=1P_OH_AL_2/0_Rucina_0_416_0_2_2

New Line.l(r:p1rdt6626lv-p1rlv13872) Units=km Length=0.0329373 bus1=p1rdt6626lv.1.2 bus2=p1rlv13872.1.2 switch=n enabled=y phases=2 Linecode=1P_OH_AL_4/0_Zuzara_0_416_0_2_2

New Line.l(r:p1rdt6626lv-p1rlv13892) Units=km Length=0.0485507 bus1=p1rdt6626lv.1.2 bus2=p1rlv13892.1.2 switch=n enabled=y phases=2 Linecode=1P_OH_AL_4/0_Zuzara_0_416_0_2_2

New Line.l(r:p1rdt6626lv-p1rlv13899) Units=km Length=0.0472448 bus1=p1rdt6626lv.1.2 bus2=p1rlv13899.1.2 switch=n enabled=y phases=2 Linecode=1P_OH_AL_4/0_Zuzara_0_416_0_2_2

New Line.l(r:p1rdt6626lv-p1rlv13905) Units=km Length=0.0580317 bus1=p1rdt6626lv.1.2 bus2=p1rlv13905.1.2 switch=n enabled=y phases=2 Linecode=1P_OH_AL_4/0_Zuzara_0_416_0_2_2

New Line.l(r:p1rdt6626lv-p1rlv13919) Units=km Length=0.08285880000000001 bus1=p1rdt6626lv.1.2 bus2=p1rlv13919.1.2 switch=n enabled=y phases=2 Linecode=1P_OH_AL_4/0_Zuzara_0_416_0_2_2

New Line.l(r:p1rdt6631lv-p1rlv13878) Units=km Length=0.001 bus1=p1rdt6631lv.1.2 bus2=p1rlv13878.1.2 switch=n enabled=y phases=2 Linecode=1P_OH_AL_4_Periwinkle_0_416_0_2_2

New Line.l(r:p1rdt6651lv-p1rlv13912) Units=km Length=0.001 bus1=p1rdt6651lv.1.2 bus2=p1rlv13912.1.2 switch=n enabled=y phases=2 Linecode=1P_OH_AL_4_Periwinkle_0_416_0_2_2

New Line.l(r:p1rdt6661lv-p1rlv13925) Units=km Length=0.001 bus1=p1rdt6661lv.1.2 bus2=p1rlv13925.1.2 switch=n enabled=y phases=2 Linecode=1P_OH_AL_4_Periwinkle_0_416_0_2_2

New Line.l(r:p1rdt6938lv-p1rlv14676) Units=km Length=0.0150068 bus1=p1rdt6938lv.1.2 bus2=p1rlv14676.1.2 switch=n enabled=y phases=2 Linecode=1P_OH_AL_2/0_Rucina_0_416_0_2_2

New Line.l(r:p1rdm15200-p1rlv14763) Units=km Length=0.0156517 bus1=p1rdm15200.1.2 bus2=p1rlv14763.1.2 switch=n enabled=y phases=2 Linecode=1P_OH_AL_2/0_Rucina_0_416_0_2_2

New Line.l(r:p1rdm15200-p1rdt6974lv) Units=km Length=0.0130713 bus1=p1rdt6974lv.1.2 bus2=p1rdm15200.1.2 switch=n enabled=y phases=2 Linecode=1P_OH_AL_2/0_Rucina_0_416_0_2_2

New Line.l(r:p1rdm15201-p1rlv14797) Units=km Length=0.020241 bus1=p1rdm15201.1.2 bus2=p1rlv14797.1.2 switch=n enabled=y phases=2 Linecode=1P_OH_AL_2/0_Rucina_0_416_0_2_2

New Line.l(r:p1rdm15201-p1rdt6974lv) Units=km Length=0.0204511 bus1=p1rdt6974lv.1.2 bus2=p1rdm15201.1.2 switch=n enabled=y phases=2 Linecode=1P_OH_AL_2/0_Rucina_0_416_0_2_2

New Line.l(r:p1rdt6984lv-p1rlv14798) Units=km Length=0.0076912 bus1=p1rdt6984lv.1.2 bus2=p1rlv14798.1.2 switch=n enabled=y phases=2 Linecode=1P_OH_AL_2/0_Rucina_0_416_0_2_2

New Line.l(r:p1rdt6986lv-p1rlv14815) Units=km Length=0.0083628 bus1=p1rdt6986lv.1.2 bus2=p1rlv14815.1.2 switch=n enabled=y phases=2 Linecode=1P_OH_AL_2/0_Rucina_0_416_0_2_2

New Line.l(r:p1rdt7142lv-p1rlv15270) Units=km Length=0.001 bus1=p1rdt7142lv.1.2 bus2=p1rlv15270.1.2 switch=n enabled=y phases=2 Linecode=1P_OH_AL_4_Periwinkle_0_416_0_2_2

New Line.l(r:p1rdt7143lv-p1rlv15271) Units=km Length=0.0863096 bus1=p1rdt7143lv.1.2 bus2=p1rlv15271.1.2 switch=n enabled=y phases=2 Linecode=1P_OH_AL_4/0_Zuzara_0_416_0_2_2

New Line.l(r:p1rdt7666lv-p1rlv16321) Units=km Length=0.0199261 bus1=p1rdt7666lv.1.2 bus2=p1rlv16321.1.2 switch=n enabled=y phases=2 Linecode=1P_OH_AL_2/0_Rucina_0_416_0_2_2

New Line.l(r:p1rdt7666lv-p1rlv16374) Units=km Length=0.0427522 bus1=p1rdt7666lv.1.2 bus2=p1rlv16374.1.2 switch=n enabled=y phases=2 Linecode=1P_OH_AL_4/0_Zuzara_0_416_0_2_2

New Line.l(r:p1rdm16802-p1rlv16353) Units=km Length=0.0529836 bus1=p1rdm16802.1.2 bus2=p1rlv16353.1.2 switch=n enabled=y phases=2 Linecode=1P_OH_AL_4/0_Zuzara_0_416_0_2_2

New Line.l(r:p1rdm16802-p1rlv16367) Units=km Length=0.01061 bus1=p1rdm16802.1.2 bus2=p1rlv16367.1.2 switch=n enabled=y phases=2 Linecode=1P_OH_AL_2/0_Rucina_0_416_0_2_2

New Line.l(r:p1rdm16802-p1rdt7666lv) Units=km Length=0.0183572 bus1=p1rdt7666lv.1.2 bus2=p1rdm16802.1.2 switch=n enabled=y phases=2 Linecode=1P_OH_AL_2/0_Rucina_0_416_0_2_2

New Line.l(r:p1rdt7674lv-p1rlv16338) Units=km Length=0.049932 bus1=p1rdt7674lv.1.2 bus2=p1rlv16338.1.2 switch=n enabled=y phases=2 Linecode=1P_OH_AL_4/0_Zuzara_0_416_0_2_2

New Line.l(r:p1rdt8199lv-p1rlv17390) Units=km Length=0.0167141 bus1=p1rdt8199lv.1.2 bus2=p1rlv17390.1.2 switch=n enabled=y phases=2 Linecode=1P_OH_AL_2/0_Rucina_0_416_0_2_2

New Line.l(r:p1rdt8252lv-p1rlv17484) Units=km Length=0.0231074 bus1=p1rdt8252lv.1.2 bus2=p1rlv17484.1.2 switch=n enabled=y phases=2 Linecode=1P_OH_AL_2/0_Rucina_0_416_0_2_2

New Line.l(r:p1rdm18060-p1rlv17479) Units=km Length=0.0276874 bus1=p1rdm18060.1.2 bus2=p1rlv17479.1.2 switch=n enabled=y phases=2 Linecode=1P_OH_AL_4/0_Zuzara_0_416_0_2_2

New Line.l(r:p1rdm18060-p1rdt8252lv) Units=km Length=0.0138305 bus1=p1rdt8252lv.1.2 bus2=p1rdm18060.1.2 switch=n enabled=y phases=2 Linecode=1P_OH_AL_2/0_Rucina_0_416_0_2_2

New Line.l(r:p1rdt8270lv-p1rlv17510) Units=km Length=0.00626286 bus1=p1rdt8270lv.1.2 bus2=p1rlv17510.1.2 switch=n enabled=y phases=2 Linecode=1P_OH_AL_2/0_Rucina_0_416_0_2_2

New Line.l(r:p1rdt8271lv-p1rlv17511) Units=km Length=0.00452729 bus1=p1rdt8271lv.1.2 bus2=p1rlv17511.1.2 switch=n enabled=y phases=2 Linecode=1P_OH_AL_2/0_Rucina_0_416_0_2_2

New Line.l(r:p1rdm18094-p1rlv17513) Units=km Length=0.005058430000000001 bus1=p1rdm18094.1.2 bus2=p1rlv17513.1.2 switch=n enabled=y phases=2 Linecode=1P_OH_AL_2/0_Rucina_0_416_0_2_2

New Line.l(r:p1rdm18094-p1rdt8273lv) Units=km Length=0.086872 bus1=p1rdt8273lv.1.2 bus2=p1rdm18094.1.2 switch=n enabled=y phases=2 Linecode=1P_OH_AL_4/0_Zuzara_0_416_0_2_2

New Line.l(r:p1rdm18096-p1rlv17517) Units=km Length=0.007541310000000001 bus1=p1rdm18096.1.2 bus2=p1rlv17517.1.2 switch=n enabled=y phases=2 Linecode=1P_OH_AL_2/0_Rucina_0_416_0_2_2

New Line.l(r:p1rdm18095-p1rlv17514) Units=km Length=0.0063386 bus1=p1rdm18095.1.2 bus2=p1rlv17514.1.2 switch=n enabled=y phases=2 Linecode=1P_OH_AL_2/0_Rucina_0_416_0_2_2

New Line.l(r:p1rdm18095-p1rdm18096) Units=km Length=0.0134436 bus1=p1rdm18096.1.2 bus2=p1rdm18095.1.2 switch=n enabled=y phases=2 Linecode=1P_OH_AL_2/0_Rucina_0_416_0_2_2

New Line.l(r:p1rdm18096-p1rdt8273lv) Units=km Length=0.00786527 bus1=p1rdt8273lv.1.2 bus2=p1rdm18096.1.2 switch=n enabled=y phases=2 Linecode=1P_OH_AL_2/0_Rucina_0_416_0_2_2

New Line.l(r:p1rdm19739-p1rlv19145) Units=km Length=0.0030051 bus1=p1rdm19739.1.2 bus2=p1rlv19145.1.2 switch=n enabled=y phases=2 Linecode=1P_UG_AL_1/0_Brenau_0_416_0_2_2

New Line.l(r:p1rdm19742-p1rlv24289) Units=km Length=0.00992561 bus1=p1rdm19742.1.2 bus2=p1rlv24289.1.2 switch=n enabled=y phases=2 Linecode=1P_UG_AL_1/0_Brenau_0_416_0_2_2

New Line.l(r:p1rdm19739-p1rdm19742) Units=km Length=0.0945543 bus1=p1rdm19739.1.2 bus2=p1rdm19742.1.2 switch=n enabled=y phases=2 Linecode=1P_UG_AL_1/0_Brenau_0_416_0_2_2

New Line.l(r:p1rdm19739-p1rdt8896lv) Units=km Length=0.00911542 bus1=p1rdt8896lv.1.2 bus2=p1rdm19739.1.2 switch=n enabled=y phases=2 Linecode=1P_UG_AL_1/0_Brenau_0_416_0_2_2

New Line.l(r:p1rdm19741-p1rlv23520) Units=km Length=0.00494095 bus1=p1rdm19741.1.2 bus2=p1rlv23520.1.2 switch=n enabled=y phases=2 Linecode=1P_UG_AL_1/0_Brenau_0_416_0_2_2

New Line.l(r:p1rdm19740-p1rlv23459) Units=km Length=0.0044109200000000005 bus1=p1rdm19740.1.2 bus2=p1rlv23459.1.2 switch=n enabled=y phases=2 Linecode=1P_UG_AL_1/0_Brenau_0_416_0_2_2

New Line.l(r:p1rdm19743-p1rlv24839) Units=km Length=0.012008 bus1=p1rdm19743.1.2 bus2=p1rlv24839.1.2 switch=n enabled=y phases=2 Linecode=1P_UG_AL_1/0_Brenau_0_416_0_2_2

New Line.l(r:p1rdm19740-p1rdm19743) Units=km Length=0.0351448 bus1=p1rdm19740.1.2 bus2=p1rdm19743.1.2 switch=n enabled=y phases=2 Linecode=1P_UG_AL_1/0_Brenau_0_416_0_2_2

New Line.l(r:p1rdm19740-p1rdm19741) Units=km Length=0.0182203 bus1=p1rdm19741.1.2 bus2=p1rdm19740.1.2 switch=n enabled=y phases=2 Linecode=1P_UG_AL_1/0_Brenau_0_416_0_2_2

New Line.l(r:p1rdm19741-p1rdt8896lv) Units=km Length=0.00910486 bus1=p1rdt8896lv.1.2 bus2=p1rdm19741.1.2 switch=n enabled=y phases=2 Linecode=1P_UG_AL_1/0_Brenau_0_416_0_2_2

New Line.l(r:p1rdm19745-p1rlv19150) Units=km Length=0.00436024 bus1=p1rdm19745.1.2 bus2=p1rlv19150.1.2 switch=n enabled=y phases=2 Linecode=1P_UG_AL_1/0_Brenau_0_416_0_2_2

New Line.l(r:p1rdm19745-p1rlv19162) Units=km Length=0.00350475 bus1=p1rdm19745.1.2 bus2=p1rlv19162.1.2 switch=n enabled=y phases=2 Linecode=1P_UG_AL_1/0_Brenau_0_416_0_2_2

New Line.l(r:p1rdm19744-p1rlv19148) Units=km Length=0.00441663 bus1=p1rdm19744.1.2 bus2=p1rlv19148.1.2 switch=n enabled=y phases=2 Linecode=1P_UG_AL_1/0_Brenau_0_416_0_2_2

New Line.l(r:p1rdm19744-p1rlv19154) Units=km Length=0.00530744 bus1=p1rdm19744.1.2 bus2=p1rlv19154.1.2 switch=n enabled=y phases=2 Linecode=1P_UG_AL_1/0_Brenau_0_416_0_2_2

New Line.l(r:p1rdm19744-p1rdm19745) Units=km Length=0.0175464 bus1=p1rdm19745.1.2 bus2=p1rdm19744.1.2 switch=n enabled=y phases=2 Linecode=1P_UG_AL_1/0_Brenau_0_416_0_2_2

New Line.l(r:p1rdm19745-p1rdt8897lv) Units=km Length=0.017884 bus1=p1rdt8897lv.1.2 bus2=p1rdm19745.1.2 switch=n enabled=y phases=2 Linecode=1P_UG_AL_1/0_Brenau_0_416_0_2_2

New Line.l(r:p1rdm19746-p1rlv19153) Units=km Length=0.00555023 bus1=p1rdm19746.1.2 bus2=p1rlv19153.1.2 switch=n enabled=y phases=2 Linecode=1P_UG_AL_1/0_Brenau_0_416_0_2_2

New Line.l(r:p1rdm19748-p1rlv19158) Units=km Length=0.00709606 bus1=p1rdm19748.1.2 bus2=p1rlv19158.1.2 switch=n enabled=y phases=2 Linecode=1P_UG_AL_1/0_Brenau_0_416_0_2_2

New Line.l(r:p1rdm19748-p1rlv23501) Units=km Length=0.00448563 bus1=p1rdm19748.1.2 bus2=p1rlv23501.1.2 switch=n enabled=y phases=2 Linecode=1P_UG_AL_1/0_Brenau_0_416_0_2_2

New Line.l(r:p1rdm19749-p1rlv19159) Units=km Length=0.00430615 bus1=p1rdm19749.1.2 bus2=p1rlv19159.1.2 switch=n enabled=y phases=2 Linecode=1P_UG_AL_1/0_Brenau_0_416_0_2_2

New Line.l(r:p1rdm19748-p1rdm19749) Units=km Length=0.00910544 bus1=p1rdm19748.1.2 bus2=p1rdm19749.1.2 switch=n enabled=y phases=2 Linecode=1P_UG_AL_1/0_Brenau_0_416_0_2_2

New Line.l(r:p1rdm19746-p1rdm19748) Units=km Length=0.00911542 bus1=p1rdm19746.1.2 bus2=p1rdm19748.1.2 switch=n enabled=y phases=2 Linecode=1P_UG_AL_1/0_Brenau_0_416_0_2_2

New Line.l(r:p1rdm19746-p1rdt8897lv) Units=km Length=0.00910486 bus1=p1rdt8897lv.1.2 bus2=p1rdm19746.1.2 switch=n enabled=y phases=2 Linecode=1P_UG_AL_1/0_Brenau_0_416_0_2_2

New Line.l(r:p1rdt8899lv-p1rlv24176) Units=km Length=0.0113724 bus1=p1rdt8899lv.1.2 bus2=p1rlv24176.1.2 switch=n enabled=y phases=2 Linecode=1P_UG_AL_1/0_Brenau_0_416_0_2_2

New Line.l(r:p1rdm19758-p1rlv24170) Units=km Length=0.0157264 bus1=p1rdm19758.1.2 bus2=p1rlv24170.1.2 switch=n enabled=y phases=2 Linecode=1P_UG_AL_1/0_Brenau_0_416_0_2_2

New Line.l(r:p1rdm19761-p1rlv24236) Units=km Length=0.015802 bus1=p1rdm19761.1.2 bus2=p1rlv24236.1.2 switch=n enabled=y phases=2 Linecode=1P_UG_AL_1/0_Brenau_0_416_0_2_2

New Line.l(r:p1rdm19762-p1rlv24238) Units=km Length=0.012857500000000001 bus1=p1rdm19762.1.2 bus2=p1rlv24238.1.2 switch=n enabled=y phases=2 Linecode=1P_UG_AL_1/0_Brenau_0_416_0_2_2

New Line.l(r:p1rdm19761-p1rdm19762) Units=km Length=0.019940800000000005 bus1=p1rdm19761.1.2 bus2=p1rdm19762.1.2 switch=n enabled=y phases=2 Linecode=1P_UG_AL_1/0_Brenau_0_416_0_2_2

New Line.l(r:p1rdm19758-p1rdm19761) Units=km Length=0.00997748 bus1=p1rdm19758.1.2 bus2=p1rdm19761.1.2 switch=n enabled=y phases=2 Linecode=1P_UG_AL_1/0_Brenau_0_416_0_2_2

New Line.l(r:p1rdm19758-p1rdt8899lv) Units=km Length=0.0299183 bus1=p1rdt8899lv.1.2 bus2=p1rdm19758.1.2 switch=n enabled=y phases=2 Linecode=1P_UG_AL_1/0_Brenau_0_416_0_2_2

New Line.l(r:p1rdm19763-p1rlv24255) Units=km Length=0.0130642 bus1=p1rdm19763.1.2 bus2=p1rlv24255.1.2 switch=n enabled=y phases=2 Linecode=1P_UG_AL_1/0_Brenau_0_416_0_2_2

New Line.l(r:p1rdm19767-p1rlv24535) Units=km Length=0.010955 bus1=p1rdm19767.1.2 bus2=p1rlv24535.1.2 switch=n enabled=y phases=2 Linecode=1P_UG_AL_1/0_Brenau_0_416_0_2_2

New Line.l(r:p1rdm19764-p1rlv24411) Units=km Length=0.0193909 bus1=p1rdm19764.1.2 bus2=p1rlv24411.1.2 switch=n enabled=y phases=2 Linecode=1P_UG_AL_1/0_Brenau_0_416_0_2_2

New Line.l(r:p1rdm19756-p1rlv19152) Units=km Length=0.0163924 bus1=p1rdm19756.1.2 bus2=p1rlv19152.1.2 switch=n enabled=y phases=2 Linecode=1P_UG_AL_1/0_Brenau_0_416_0_2_2

New Line.l(r:p1rdm19756-p1rdm19764) Units=km Length=0.0101547 bus1=p1rdm19764.1.2 bus2=p1rdm19756.1.2 switch=n enabled=y phases=2 Linecode=1P_UG_AL_1/0_Brenau_0_416_0_2_2

New Line.l(r:p1rdm19764-p1rdm19767) Units=km Length=0.011137 bus1=p1rdm19767.1.2 bus2=p1rdm19764.1.2 switch=n enabled=y phases=2 Linecode=1P_UG_AL_1/0_Brenau_0_416_0_2_2

New Line.l(r:p1rdm19763-p1rdm19767) Units=km Length=0.0171195 bus1=p1rdm19763.1.2 bus2=p1rdm19767.1.2 switch=n enabled=y phases=2 Linecode=1P_UG_AL_1/0_Brenau_0_416_0_2_2

New Line.l(r:p1rdm19763-p1rdt8899lv) Units=km Length=0.0169375 bus1=p1rdt8899lv.1.2 bus2=p1rdm19763.1.2 switch=n enabled=y phases=2 Linecode=1P_UG_AL_1/0_Brenau_0_416_0_2_2

New Line.l(r:p1rdm19765-p1rlv24476) Units=km Length=0.014001200000000002 bus1=p1rdm19765.1.2 bus2=p1rlv24476.1.2 switch=n enabled=y phases=2 Linecode=1P_UG_AL_1/0_Brenau_0_416_0_2_2

New Line.l(r:p1rdm19757-p1rlv23502) Units=km Length=0.0138831 bus1=p1rdm19757.1.2 bus2=p1rlv23502.1.2 switch=n enabled=y phases=2 Linecode=1P_UG_AL_1/0_Brenau_0_416_0_2_2

New Line.l(r:p1rdm19760-p1rlv24177) Units=km Length=0.01486 bus1=p1rdm19760.1.2 bus2=p1rlv24177.1.2 switch=n enabled=y phases=2 Linecode=1P_UG_AL_1/0_Brenau_0_416_0_2_2

New Line.l(r:p1rdm19766-p1rlv24484) Units=km Length=0.012902500000000003 bus1=p1rdm19766.1.2 bus2=p1rlv24484.1.2 switch=n enabled=y phases=2 Linecode=1P_UG_AL_1/0_Brenau_0_416_0_2_2

New Line.l(r:p1rdm19760-p1rdm19766) Units=km Length=0.00620013 bus1=p1rdm19760.1.2 bus2=p1rdm19766.1.2 switch=n enabled=y phases=2 Linecode=1P_UG_AL_1/0_Brenau_0_416_0_2_2

New Line.l(r:p1rdm19757-p1rdm19760) Units=km Length=0.0131119 bus1=p1rdm19757.1.2 bus2=p1rdm19760.1.2 switch=n enabled=y phases=2 Linecode=1P_UG_AL_1/0_Brenau_0_416_0_2_2

New Line.l(r:p1rdm19757-p1rdm19765) Units=km Length=0.006911770000000001 bus1=p1rdm19765.1.2 bus2=p1rdm19757.1.2 switch=n enabled=y phases=2 Linecode=1P_UG_AL_1/0_Brenau_0_416_0_2_2

New Line.l(r:p1rdm19765-p1rdt8899lv) Units=km Length=0.0168736 bus1=p1rdt8899lv.1.2 bus2=p1rdm19765.1.2 switch=n enabled=y phases=2 Linecode=1P_UG_AL_1/0_Brenau_0_416_0_2_2

New Line.l(r:p1rdt8900lv-p1rlv24213) Units=km Length=0.0291668 bus1=p1rdt8900lv.1.2 bus2=p1rlv24213.1.2 switch=n enabled=y phases=2 Linecode=1P_UG_AL_1/0_Brenau_0_416_0_2_2

New Line.l(r:p1rdm19768-p1rlv19155) Units=km Length=0.0189192 bus1=p1rdm19768.1.2 bus2=p1rlv19155.1.2 switch=n enabled=y phases=2 Linecode=1P_UG_AL_1/0_Brenau_0_416_0_2_2

New Line.l(r:p1rdm19768-p1rdt8900lv) Units=km Length=0.00616747 bus1=p1rdt8900lv.1.2 bus2=p1rdm19768.1.2 switch=n enabled=y phases=2 Linecode=1P_UG_AL_1/0_Brenau_0_416_0_2_2

New Line.l(r:p1rdt8903lv-p1rlv19167) Units=km Length=0.008418560000000002 bus1=p1rdt8903lv.1.2 bus2=p1rlv19167.1.2 switch=n enabled=y phases=2 Linecode=1P_OH_AL_2/0_Rucina_0_416_0_2_2

New Line.l(r:p1rdt8903lv-p1rlv19178) Units=km Length=0.00763157 bus1=p1rdt8903lv.1.2 bus2=p1rlv19178.1.2 switch=n enabled=y phases=2 Linecode=1P_OH_AL_2/0_Rucina_0_416_0_2_2

New Line.l(r:p1rdt8906lv-p1rlv19192) Units=km Length=0.006896930000000001 bus1=p1rdt8906lv.1.2 bus2=p1rlv19192.1.2 switch=n enabled=y phases=2 Linecode=1P_OH_AL_2/0_Rucina_0_416_0_2_2

New Line.l(r:p1rdm19782-p1rlv19170) Units=km Length=0.031579 bus1=p1rdm19782.1.2 bus2=p1rlv19170.1.2 switch=n enabled=y phases=2 Linecode=1P_OH_AL_4/0_Zuzara_0_416_0_2_2

New Line.l(r:p1rdm19783-p1rlv19175) Units=km Length=0.054253 bus1=p1rdm19783.1.2 bus2=p1rlv19175.1.2 switch=n enabled=y phases=2 Linecode=1P_OH_AL_4/0_Zuzara_0_416_0_2_2

New Line.l(r:p1rdm19782-p1rdm19783) Units=km Length=0.0156771 bus1=p1rdm19782.1.2 bus2=p1rdm19783.1.2 switch=n enabled=y phases=2 Linecode=1P_OH_AL_2/0_Rucina_0_416_0_2_2

New Line.l(r:p1rdm19782-p1rdt8906lv) Units=km Length=0.0282256 bus1=p1rdt8906lv.1.2 bus2=p1rdm19782.1.2 switch=n enabled=y phases=2 Linecode=1P_OH_AL_4/0_Zuzara_0_416_0_2_2

New Line.l(r:p1rdt8909lv-p1rlv19177) Units=km Length=0.0318812 bus1=p1rdt8909lv.1.2 bus2=p1rlv19177.1.2 switch=n enabled=y phases=2 Linecode=1P_OH_AL_4/0_Zuzara_0_416_0_2_2

New Line.l(r:p1rdm19791-p1rlv19182) Units=km Length=0.00848972 bus1=p1rdm19791.1.2 bus2=p1rlv19182.1.2 switch=n enabled=y phases=2 Linecode=1P_OH_AL_2/0_Rucina_0_416_0_2_2

New Line.l(r:p1rdm19791-p1rdt8909lv) Units=km Length=0.0285458 bus1=p1rdt8909lv.1.2 bus2=p1rdm19791.1.2 switch=n enabled=y phases=2 Linecode=1P_OH_AL_4/0_Zuzara_0_416_0_2_2

New Line.l(r:p1rdm19792-p1rlv19195) Units=km Length=0.019574300000000003 bus1=p1rdm19792.1.2 bus2=p1rlv19195.1.2 switch=n enabled=y phases=2 Linecode=1P_OH_AL_2/0_Rucina_0_416_0_2_2

New Line.l(r:p1rdm19792-p1rdt8909lv) Units=km Length=0.0178491 bus1=p1rdt8909lv.1.2 bus2=p1rdm19792.1.2 switch=n enabled=y phases=2 Linecode=1P_OH_AL_2/0_Rucina_0_416_0_2_2

New Line.l(r:p1rdt8912lv-p1rlv19185) Units=km Length=0.0294306 bus1=p1rdt8912lv.1.2 bus2=p1rlv19185.1.2 switch=n enabled=y phases=2 Linecode=1P_OH_AL_4/0_Zuzara_0_416_0_2_2

New Line.l(r:p1rdt8913lv-p1rlv19196) Units=km Length=0.0183966 bus1=p1rdt8913lv.1.2 bus2=p1rlv19196.1.2 switch=n enabled=y phases=2 Linecode=1P_OH_AL_2/0_Rucina_0_416_0_2_2

New Line.l(r:p1rdm19797-p1rlv19186) Units=km Length=0.0141088 bus1=p1rdm19797.1.2 bus2=p1rlv19186.1.2 switch=n enabled=y phases=2 Linecode=1P_OH_AL_2/0_Rucina_0_416_0_2_2

New Line.l(r:p1rdm19797-p1rdt8913lv) Units=km Length=0.00402604 bus1=p1rdt8913lv.1.2 bus2=p1rdm19797.1.2 switch=n enabled=y phases=2 Linecode=1P_OH_AL_2/0_Rucina_0_416_0_2_2

New Line.l(r:p1rdt8914lv-p1rlv20927) Units=km Length=0.0197301 bus1=p1rdt8914lv.1.2 bus2=p1rlv20927.1.2 switch=n enabled=y phases=2 Linecode=1P_OH_AL_2/0_Rucina_0_416_0_2_2

New Line.l(r:p1rdm19800-p1rlv20906) Units=km Length=0.009383760000000001 bus1=p1rdm19800.1.2 bus2=p1rlv20906.1.2 switch=n enabled=y phases=2 Linecode=1P_OH_AL_2/0_Rucina_0_416_0_2_2

New Line.l(r:p1rdm19800-p1rlv20923) Units=km Length=0.0158367 bus1=p1rdm19800.1.2 bus2=p1rlv20923.1.2 switch=n enabled=y phases=2 Linecode=1P_OH_AL_2/0_Rucina_0_416_0_2_2

New Line.l(r:p1rdm19799-p1rlv19187) Units=km Length=0.0139717 bus1=p1rdm19799.1.2 bus2=p1rlv19187.1.2 switch=n enabled=y phases=2 Linecode=1P_OH_AL_2/0_Rucina_0_416_0_2_2

New Line.l(r:p1rdm19799-p1rdm19800) Units=km Length=0.014481000000000003 bus1=p1rdm19800.1.2 bus2=p1rdm19799.1.2 switch=n enabled=y phases=2 Linecode=1P_OH_AL_2/0_Rucina_0_416_0_2_2

New Line.l(r:p1rdm19800-p1rdt8914lv) Units=km Length=0.0166346 bus1=p1rdt8914lv.1.2 bus2=p1rdm19800.1.2 switch=n enabled=y phases=2 Linecode=1P_OH_AL_2/0_Rucina_0_416_0_2_2

New Line.l(r:p1rdm19802-p1rlv20926) Units=km Length=0.010220000000000002 bus1=p1rdm19802.1.2 bus2=p1rlv20926.1.2 switch=n enabled=y phases=2 Linecode=1P_OH_AL_2/0_Rucina_0_416_0_2_2

New Line.l(r:p1rdm19802-p1rdt8914lv) Units=km Length=0.049935200000000006 bus1=p1rdt8914lv.1.2 bus2=p1rdm19802.1.2 switch=n enabled=y phases=2 Linecode=1P_OH_AL_4/0_Zuzara_0_416_0_2_2

New Line.l(r:p1rdt9171lv-p1rlv19832) Units=km Length=0.0175591 bus1=p1rdt9171lv.1.2 bus2=p1rlv19832.1.2 switch=n enabled=y phases=2 Linecode=1P_OH_AL_2/0_Rucina_0_416_0_2_2

New Line.l(r:p1rdm20395-p1rlv19845) Units=km Length=0.010360200000000002 bus1=p1rdm20395.1.2 bus2=p1rlv19845.1.2 switch=n enabled=y phases=2 Linecode=1P_OH_AL_2/0_Rucina_0_416_0_2_2

New Line.l(r:p1rdm20395-p1rdt9171lv) Units=km Length=0.0362743 bus1=p1rdt9171lv.1.2 bus2=p1rdm20395.1.2 switch=n enabled=y phases=2 Linecode=1P_OH_AL_4/0_Zuzara_0_416_0_2_2

New Line.l(r:p1rdm20396-p1rlv19851) Units=km Length=0.0398641 bus1=p1rdm20396.1.2 bus2=p1rlv19851.1.2 switch=n enabled=y phases=2 Linecode=1P_OH_AL_4/0_Zuzara_0_416_0_2_2

New Line.l(r:p1rdm20396-p1rlv19910) Units=km Length=0.0113395 bus1=p1rdm20396.1.2 bus2=p1rlv19910.1.2 switch=n enabled=y phases=2 Linecode=1P_OH_AL_2/0_Rucina_0_416_0_2_2

New Line.l(r:p1rdm20396-p1rdt9171lv) Units=km Length=0.0142903 bus1=p1rdt9171lv.1.2 bus2=p1rdm20396.1.2 switch=n enabled=y phases=2 Linecode=1P_OH_AL_2/0_Rucina_0_416_0_2_2

New Line.l(r:p1rdt9179lv-p1rlv19870) Units=km Length=0.014285400000000002 bus1=p1rdt9179lv.1.2 bus2=p1rlv19870.1.2 switch=n enabled=y phases=2 Linecode=1P_OH_AL_2/0_Rucina_0_416_0_2_2

New Line.l(r:p1rdm20427-p1rlv19854) Units=km Length=0.00921135 bus1=p1rdm20427.1.2 bus2=p1rlv19854.1.2 switch=n enabled=y phases=2 Linecode=1P_OH_AL_2/0_Rucina_0_416_0_2_2

New Line.l(r:p1rdm20427-p1rdt9179lv) Units=km Length=0.0585796 bus1=p1rdt9179lv.1.2 bus2=p1rdm20427.1.2 switch=n enabled=y phases=2 Linecode=1P_OH_AL_4/0_Zuzara_0_416_0_2_2

New Line.l(r:p1rdm20428-p1rlv19861) Units=km Length=0.016973300000000004 bus1=p1rdm20428.1.2 bus2=p1rlv19861.1.2 switch=n enabled=y phases=2 Linecode=1P_OH_AL_2/0_Rucina_0_416_0_2_2

New Line.l(r:p1rdm20426-p1rlv19849) Units=km Length=0.00616871 bus1=p1rdm20426.1.2 bus2=p1rlv19849.1.2 switch=n enabled=y phases=2 Linecode=1P_OH_AL_2/0_Rucina_0_416_0_2_2

New Line.l(r:p1rdm20426-p1rdm20428) Units=km Length=0.0115576 bus1=p1rdm20428.1.2 bus2=p1rdm20426.1.2 switch=n enabled=y phases=2 Linecode=1P_OH_AL_2/0_Rucina_0_416_0_2_2

New Line.l(r:p1rdm20428-p1rdt9179lv) Units=km Length=0.0104098 bus1=p1rdt9179lv.1.2 bus2=p1rdm20428.1.2 switch=n enabled=y phases=2 Linecode=1P_OH_AL_2/0_Rucina_0_416_0_2_2

New Line.l(r:p1rdt9183lv-p1rlv19894) Units=km Length=0.01221 bus1=p1rdt9183lv.1.2 bus2=p1rlv19894.1.2 switch=n enabled=y phases=2 Linecode=1P_OH_AL_2/0_Rucina_0_416_0_2_2

New Line.l(r:p1rdm20442-p1rlv19879) Units=km Length=0.0152929 bus1=p1rdm20442.1.2 bus2=p1rlv19879.1.2 switch=n enabled=y phases=2 Linecode=1P_OH_AL_2/0_Rucina_0_416_0_2_2

New Line.l(r:p1rdm20442-p1rdt9183lv) Units=km Length=0.0191655 bus1=p1rdt9183lv.1.2 bus2=p1rdm20442.1.2 switch=n enabled=y phases=2 Linecode=1P_OH_AL_2/0_Rucina_0_416_0_2_2

New Line.l(r:p1rdm20446-p1rlv19892) Units=km Length=0.0456547 bus1=p1rdm20446.1.2 bus2=p1rlv19892.1.2 switch=n enabled=y phases=2 Linecode=1P_OH_AL_4/0_Zuzara_0_416_0_2_2

New Line.l(r:p1rdm20446-p1rdt9186lv) Units=km Length=0.0112215 bus1=p1rdt9186lv.1.2 bus2=p1rdm20446.1.2 switch=n enabled=y phases=2 Linecode=1P_OH_AL_2/0_Rucina_0_416_0_2_2

New Line.l(r:p1rdm20447-p1rlv24819) Units=km Length=0.0303929 bus1=p1rdm20447.1.2 bus2=p1rlv24819.1.2 switch=n enabled=y phases=2 Linecode=1P_OH_AL_4/0_Zuzara_0_416_0_2_2

New Line.l(r:p1rdm20447-p1rdt9186lv) Units=km Length=0.020774 bus1=p1rdt9186lv.1.2 bus2=p1rdm20447.1.2 switch=n enabled=y phases=2 Linecode=1P_OH_AL_2/0_Rucina_0_416_0_2_2

New Line.l(r:p1rdm20655-p1rlv20126) Units=km Length=0.0180173 bus1=p1rdm20655.1.2 bus2=p1rlv20126.1.2 switch=n enabled=y phases=2 Linecode=1P_UG_AL_4/0_Sweetbriar_0_416_0_2_2

New Line.l(r:p1rdm20655-p1rdt9295lv) Units=km Length=0.0194953 bus1=p1rdt9295lv.1.2 bus2=p1rdm20655.1.2 switch=n enabled=y phases=2 Linecode=1P_UG_AL_4/0_Sweetbriar_0_416_0_2_2

New Line.l(r:p1rdm20656-p1rlv20645) Units=km Length=0.0243333 bus1=p1rdm20656.1.2 bus2=p1rlv20645.1.2 switch=n enabled=y phases=2 Linecode=1P_UG_AL_1/0_Brenau_0_416_0_2_2

New Line.l(r:p1rdm20656-p1rdt9295lv) Units=km Length=0.019870800000000004 bus1=p1rdt9295lv.1.2 bus2=p1rdm20656.1.2 switch=n enabled=y phases=2 Linecode=1P_UG_AL_1/0_Brenau_0_416_0_2_2

New Line.l(r:p1rdt9350lv-p1rlv20217) Units=km Length=0.0198729 bus1=p1rdt9350lv.1.2 bus2=p1rlv20217.1.2 switch=n enabled=y phases=2 Linecode=1P_OH_AL_2/0_Rucina_0_416_0_2_2

New Line.l(r:p1rdt9350lv-p1rlv20240) Units=km Length=0.0496748 bus1=p1rdt9350lv.1.2 bus2=p1rlv20240.1.2 switch=n enabled=y phases=2 Linecode=1P_OH_AL_4/0_Zuzara_0_416_0_2_2

New Line.l(r:p1rdm20746-p1rlv20221) Units=km Length=0.0113925 bus1=p1rdm20746.1.2 bus2=p1rlv20221.1.2 switch=n enabled=y phases=2 Linecode=1P_OH_AL_2/0_Rucina_0_416_0_2_2

New Line.l(r:p1rdm20746-p1rlv20224) Units=km Length=0.0552104 bus1=p1rdm20746.1.2 bus2=p1rlv20224.1.2 switch=n enabled=y phases=2 Linecode=1P_OH_AL_4/0_Zuzara_0_416_0_2_2

New Line.l(r:p1rdm20746-p1rdt9350lv) Units=km Length=0.0176592 bus1=p1rdt9350lv.1.2 bus2=p1rdm20746.1.2 switch=n enabled=y phases=2 Linecode=1P_OH_AL_2/0_Rucina_0_416_0_2_2

New Line.l(r:p1rdm20749-p1rlv20250) Units=km Length=0.0152665 bus1=p1rdm20749.1.2 bus2=p1rlv20250.1.2 switch=n enabled=y phases=2 Linecode=1P_OH_AL_2/0_Rucina_0_416_0_2_2

New Line.l(r:p1rdm20749-p1rdt9350lv) Units=km Length=0.0670799 bus1=p1rdt9350lv.1.2 bus2=p1rdm20749.1.2 switch=n enabled=y phases=2 Linecode=1P_OH_AL_4/0_Zuzara_0_416_0_2_2

New Line.l(r:p1rdt9351lv-p1rlv20218) Units=km Length=0.04572020000000001 bus1=p1rdt9351lv.1.2 bus2=p1rlv20218.1.2 switch=n enabled=y phases=2 Linecode=1P_OH_AL_4/0_Zuzara_0_416_0_2_2

New Line.l(r:p1rdt9351lv-p1rlv20230) Units=km Length=0.0404071 bus1=p1rdt9351lv.1.2 bus2=p1rlv20230.1.2 switch=n enabled=y phases=2 Linecode=1P_OH_AL_4/0_Zuzara_0_416_0_2_2

New Line.l(r:p1rdt9351lv-p1rlv20254) Units=km Length=0.046464 bus1=p1rdt9351lv.1.2 bus2=p1rlv20254.1.2 switch=n enabled=y phases=2 Linecode=1P_OH_AL_4/0_Zuzara_0_416_0_2_2

New Line.l(r:p1rdt9352lv-p1rlv20219) Units=km Length=0.051390200000000004 bus1=p1rdt9352lv.1.2 bus2=p1rlv20219.1.2 switch=n enabled=y phases=2 Linecode=1P_OH_AL_4/0_Zuzara_0_416_0_2_2

New Line.l(r:p1rdt9353lv-p1rlv20220) Units=km Length=0.0338092 bus1=p1rdt9353lv.1.2 bus2=p1rlv20220.1.2 switch=n enabled=y phases=2 Linecode=1P_OH_AL_4/0_Zuzara_0_416_0_2_2

New Line.l(r:p1rdt9353lv-p1rlv20228) Units=km Length=0.0338092 bus1=p1rdt9353lv.1.2 bus2=p1rlv20228.1.2 switch=n enabled=y phases=2 Linecode=1P_OH_AL_4/0_Zuzara_0_416_0_2_2

New Line.l(r:p1rdt9354lv-p1rlv20259) Units=km Length=0.0142194 bus1=p1rdt9354lv.1.2 bus2=p1rlv20259.1.2 switch=n enabled=y phases=2 Linecode=1P_OH_AL_2/0_Rucina_0_416_0_2_2

New Line.l(r:p1rdm20756-p1rlv20222) Units=km Length=0.0112786 bus1=p1rdm20756.1.2 bus2=p1rlv20222.1.2 switch=n enabled=y phases=2 Linecode=1P_OH_AL_2/0_Rucina_0_416_0_2_2

New Line.l(r:p1rdm20756-p1rlv20234) Units=km Length=0.0016513 bus1=p1rdm20756.1.2 bus2=p1rlv20234.1.2 switch=n enabled=y phases=2 Linecode=1P_OH_AL_4_Periwinkle_0_416_0_2_2

New Line.l(r:p1rdm20756-p1rdt9354lv) Units=km Length=0.0180671 bus1=p1rdt9354lv.1.2 bus2=p1rdm20756.1.2 switch=n enabled=y phases=2 Linecode=1P_OH_AL_2/0_Rucina_0_416_0_2_2

New Line.l(r:p1rdm20758-p1rlv20245) Units=km Length=0.005390150000000001 bus1=p1rdm20758.1.2 bus2=p1rlv20245.1.2 switch=n enabled=y phases=2 Linecode=1P_OH_AL_2/0_Rucina_0_416_0_2_2

New Line.l(r:p1rdm20758-p1rdt9354lv) Units=km Length=0.0564659 bus1=p1rdt9354lv.1.2 bus2=p1rdm20758.1.2 switch=n enabled=y phases=2 Linecode=1P_OH_AL_4/0_Zuzara_0_416_0_2_2

New Line.l(r:p1rdt9355lv-p1rlv20249) Units=km Length=0.00379816 bus1=p1rdt9355lv.1.2 bus2=p1rlv20249.1.2 switch=n enabled=y phases=2 Linecode=1P_OH_AL_4_Periwinkle_0_416_0_2_2

New Line.l(r:p1rdt9355lv-p1rlv20261) Units=km Length=0.0428544 bus1=p1rdt9355lv.1.2 bus2=p1rlv20261.1.2 switch=n enabled=y phases=2 Linecode=1P_OH_AL_4/0_Zuzara_0_416_0_2_2

New Line.l(r:p1rdm20761-p1rlv20231) Units=km Length=0.0171797 bus1=p1rdm20761.1.2 bus2=p1rlv20231.1.2 switch=n enabled=y phases=2 Linecode=1P_OH_AL_2/0_Rucina_0_416_0_2_2

New Line.l(r:p1rdm20761-p1rdt9355lv) Units=km Length=0.0176625 bus1=p1rdt9355lv.1.2 bus2=p1rdm20761.1.2 switch=n enabled=y phases=2 Linecode=1P_OH_AL_2/0_Rucina_0_416_0_2_2

New Line.l(r:p1rdm20762-p1rlv20241) Units=km Length=0.0310243 bus1=p1rdm20762.1.2 bus2=p1rlv20241.1.2 switch=n enabled=y phases=2 Linecode=1P_OH_AL_4/0_Zuzara_0_416_0_2_2

New Line.l(r:p1rdm20760-p1rlv20223) Units=km Length=0.025110600000000004 bus1=p1rdm20760.1.2 bus2=p1rlv20223.1.2 switch=n enabled=y phases=2 Linecode=1P_OH_AL_2/0_Rucina_0_416_0_2_2

New Line.l(r:p1rdm20760-p1rdm20762) Units=km Length=0.0404801 bus1=p1rdm20762.1.2 bus2=p1rdm20760.1.2 switch=n enabled=y phases=2 Linecode=1P_OH_AL_4/0_Zuzara_0_416_0_2_2

New Line.l(r:p1rdm20762-p1rdt9355lv) Units=km Length=0.010755200000000001 bus1=p1rdt9355lv.1.2 bus2=p1rdm20762.1.2 switch=n enabled=y phases=2 Linecode=1P_OH_AL_2/0_Rucina_0_416_0_2_2

New Line.l(r:p1rdt9356lv-p1rlv20227) Units=km Length=0.0317199 bus1=p1rdt9356lv.1.2 bus2=p1rlv20227.1.2 switch=n enabled=y phases=2 Linecode=1P_OH_AL_4/0_Zuzara_0_416_0_2_2

New Line.l(r:p1rdt9356lv-p1rlv20243) Units=km Length=0.00575569 bus1=p1rdt9356lv.1.2 bus2=p1rlv20243.1.2 switch=n enabled=y phases=2 Linecode=1P_OH_AL_2/0_Rucina_0_416_0_2_2

New Line.l(r:p1rdm20765-p1rlv20225) Units=km Length=0.019520300000000004 bus1=p1rdm20765.1.2 bus2=p1rlv20225.1.2 switch=n enabled=y phases=2 Linecode=1P_OH_AL_2/0_Rucina_0_416_0_2_2

New Line.l(r:p1rdm20765-p1rdt9356lv) Units=km Length=0.0196161 bus1=p1rdt9356lv.1.2 bus2=p1rdm20765.1.2 switch=n enabled=y phases=2 Linecode=1P_OH_AL_2/0_Rucina_0_416_0_2_2

New Line.l(r:p1rdt9358lv-p1rlv20229) Units=km Length=0.0113378 bus1=p1rdt9358lv.1.2 bus2=p1rlv20229.1.2 switch=n enabled=y phases=2 Linecode=1P_OH_AL_2/0_Rucina_0_416_0_2_2

New Line.l(r:p1rdm20770-p1rlv20244) Units=km Length=0.0171479 bus1=p1rdm20770.1.2 bus2=p1rlv20244.1.2 switch=n enabled=y phases=2 Linecode=1P_OH_AL_2/0_Rucina_0_416_0_2_2

New Line.l(r:p1rdm20770-p1rdt9358lv) Units=km Length=0.018735 bus1=p1rdt9358lv.1.2 bus2=p1rdm20770.1.2 switch=n enabled=y phases=2 Linecode=1P_OH_AL_2/0_Rucina_0_416_0_2_2

New Line.l(r:p1rdt9359lv-p1rlv20237) Units=km Length=0.0106488 bus1=p1rdt9359lv.1.2 bus2=p1rlv20237.1.2 switch=n enabled=y phases=2 Linecode=1P_OH_AL_2/0_Rucina_0_416_0_2_2

New Line.l(r:p1rdm20771-p1rlv20232) Units=km Length=0.0272421 bus1=p1rdm20771.1.2 bus2=p1rlv20232.1.2 switch=n enabled=y phases=2 Linecode=1P_OH_AL_4/0_Zuzara_0_416_0_2_2

New Line.l(r:p1rdm20771-p1rdt9359lv) Units=km Length=0.0702491 bus1=p1rdt9359lv.1.2 bus2=p1rdm20771.1.2 switch=n enabled=y phases=2 Linecode=1P_OH_AL_4/0_Zuzara_0_416_0_2_2

New Line.l(r:p1rdm20772-p1rlv20233) Units=km Length=0.00299681 bus1=p1rdm20772.1.2 bus2=p1rlv20233.1.2 switch=n enabled=y phases=2 Linecode=1P_OH_AL_4_Periwinkle_0_416_0_2_2

New Line.l(r:p1rdm20772-p1rdt9359lv) Units=km Length=0.03443720000000001 bus1=p1rdt9359lv.1.2 bus2=p1rdm20772.1.2 switch=n enabled=y phases=2 Linecode=1P_OH_AL_4/0_Zuzara_0_416_0_2_2

New Line.l(r:p1rdt9360lv-p1rlv20235) Units=km Length=0.001 bus1=p1rdt9360lv.1.2 bus2=p1rlv20235.1.2 switch=n enabled=y phases=2 Linecode=1P_OH_AL_4_Periwinkle_0_416_0_2_2

New Line.l(r:p1rdt9361lv-p1rlv20236) Units=km Length=0.0612421 bus1=p1rdt9361lv.1.2 bus2=p1rlv20236.1.2 switch=n enabled=y phases=2 Linecode=1P_OH_AL_4/0_Zuzara_0_416_0_2_2

New Line.l(r:p1rdt9361lv-p1rlv20257) Units=km Length=0.0428709 bus1=p1rdt9361lv.1.2 bus2=p1rlv20257.1.2 switch=n enabled=y phases=2 Linecode=1P_OH_AL_4/0_Zuzara_0_416_0_2_2

New Line.l(r:p1rdm20776-p1rlv20248) Units=km Length=0.0749641 bus1=p1rdm20776.1.2 bus2=p1rlv20248.1.2 switch=n enabled=y phases=2 Linecode=1P_OH_AL_4/0_Zuzara_0_416_0_2_2

New Line.l(r:p1rdm20776-p1rdt9361lv) Units=km Length=0.0165953 bus1=p1rdt9361lv.1.2 bus2=p1rdm20776.1.2 switch=n enabled=y phases=2 Linecode=1P_OH_AL_2/0_Rucina_0_416_0_2_2

New Line.l(r:p1rdt9362lv-p1rlv20238) Units=km Length=0.0514292 bus1=p1rdt9362lv.1.2 bus2=p1rlv20238.1.2 switch=n enabled=y phases=2 Linecode=1P_OH_AL_4/0_Zuzara_0_416_0_2_2

New Line.l(r:p1rdm20779-p1rlv20239) Units=km Length=0.122632 bus1=p1rdm20779.1.2 bus2=p1rlv20239.1.2 switch=n enabled=y phases=2 Linecode=1P_OH_AL_4/0_Zuzara_0_416_0_2_2

New Line.l(r:p1rdm20779-p1rdt9362lv) Units=km Length=0.0432618 bus1=p1rdt9362lv.1.2 bus2=p1rdm20779.1.2 switch=n enabled=y phases=2 Linecode=1P_OH_AL_4/0_Zuzara_0_416_0_2_2

New Line.l(r:p1rdm20780-p1rlv20252) Units=km Length=0.0426932 bus1=p1rdm20780.1.2 bus2=p1rlv20252.1.2 switch=n enabled=y phases=2 Linecode=1P_OH_AL_4/0_Zuzara_0_416_0_2_2

New Line.l(r:p1rdm20780-p1rdt9362lv) Units=km Length=0.0172161 bus1=p1rdt9362lv.1.2 bus2=p1rdm20780.1.2 switch=n enabled=y phases=2 Linecode=1P_OH_AL_2/0_Rucina_0_416_0_2_2

New Line.l(r:p1rdt9363lv-p1rlv20242) Units=km Length=0.0042671 bus1=p1rdt9363lv.1.2 bus2=p1rlv20242.1.2 switch=n enabled=y phases=2 Linecode=1P_OH_AL_2/0_Rucina_0_416_0_2_2

New Line.l(r:p1rdt9364lv-p1rlv20246) Units=km Length=0.0100242 bus1=p1rdt9364lv.1.2 bus2=p1rlv20246.1.2 switch=n enabled=y phases=2 Linecode=1P_OH_AL_2/0_Rucina_0_416_0_2_2

New Line.l(r:p1rdt9364lv-p1rlv20255) Units=km Length=0.00914999 bus1=p1rdt9364lv.1.2 bus2=p1rlv20255.1.2 switch=n enabled=y phases=2 Linecode=1P_OH_AL_2/0_Rucina_0_416_0_2_2

New Line.l(r:p1rdm20783-p1rlv20247) Units=km Length=0.00335049 bus1=p1rdm20783.1.2 bus2=p1rlv20247.1.2 switch=n enabled=y phases=2 Linecode=1P_OH_AL_4_Periwinkle_0_416_0_2_2

New Line.l(r:p1rdm20783-p1rdt9364lv) Units=km Length=0.018733 bus1=p1rdt9364lv.1.2 bus2=p1rdm20783.1.2 switch=n enabled=y phases=2 Linecode=1P_OH_AL_2/0_Rucina_0_416_0_2_2

New Line.l(r:p1rdt9365lv-p1rlv20251) Units=km Length=0.0758784 bus1=p1rdt9365lv.1.2 bus2=p1rlv20251.1.2 switch=n enabled=y phases=2 Linecode=1P_OH_AL_4/0_Zuzara_0_416_0_2_2

New Line.l(r:p1rdt9367lv-p1rlv20256) Units=km Length=0.0127968 bus1=p1rdt9367lv.1.2 bus2=p1rlv20256.1.2 switch=n enabled=y phases=2 Linecode=1P_OH_AL_2/0_Rucina_0_416_0_2_2

New Line.l(r:p1rdt9368lv-p1rlv20258) Units=km Length=0.00621885 bus1=p1rdt9368lv.1.2 bus2=p1rlv20258.1.2 switch=n enabled=y phases=2 Linecode=1P_OH_AL_2/0_Rucina_0_416_0_2_2

New Line.l(r:p1rdt9369lv-p1rlv20260) Units=km Length=0.045735500000000005 bus1=p1rdt9369lv.1.2 bus2=p1rlv20260.1.2 switch=n enabled=y phases=2 Linecode=1P_OH_AL_4/0_Zuzara_0_416_0_2_2

New Line.l(r:p1rdt9540lv-p1rlv20640) Units=km Length=0.068506 bus1=p1rdt9540lv.1.2 bus2=p1rlv20640.1.2 switch=n enabled=y phases=2 Linecode=1P_OH_AL_4/0_Zuzara_0_416_0_2_2

New Line.l(r:p1rdt9540lv-p1rlv20660)_s0 Units=km Length=0.0565963 bus1=p1rdt9540lv.1.2 bus2=p1rdt9540lv-p1rlv20660x.1.2 switch=n enabled=y phases=2 Linecode=1P_OH_AL_4/0_Zuzara_0_416_0_2_2

New Line.l(r:p1rdt9540lv-p1rlv20660)_s1 Units=km Length=0.001 bus1=p1rdt9540lv-p1rlv20660x.1.2 bus2=p1rlv20660.1.2 switch=n enabled=y phases=2 Linecode=1P_OH_AL_4_Periwinkle_0_416_0_2_2

New Line.l(r:p1rdt9542lv-p1rlv20643) Units=km Length=0.00215139 bus1=p1rdt9542lv.1.2 bus2=p1rlv20643.1.2 switch=n enabled=y phases=2 Linecode=1P_OH_AL_4_Periwinkle_0_416_0_2_2

New Line.l(r:p1rdm21110-p1rlv20649) Units=km Length=0.00954964 bus1=p1rdm21110.1.2 bus2=p1rlv20649.1.2 switch=n enabled=y phases=2 Linecode=1P_OH_AL_2/0_Rucina_0_416_0_2_2

New Line.l(r:p1rdm21110-p1rdt9542lv) Units=km Length=0.0501257 bus1=p1rdt9542lv.1.2 bus2=p1rdm21110.1.2 switch=n enabled=y phases=2 Linecode=1P_OH_AL_4/0_Zuzara_0_416_0_2_2

New Line.l(r:p1rdm21111-p1rlv20664) Units=km Length=0.00683797 bus1=p1rdm21111.1.2 bus2=p1rlv20664.1.2 switch=n enabled=y phases=2 Linecode=1P_OH_AL_2/0_Rucina_0_416_0_2_2

New Line.l(r:p1rdm21111-p1rdt9542lv) Units=km Length=0.0692029 bus1=p1rdt9542lv.1.2 bus2=p1rdm21111.1.2 switch=n enabled=y phases=2 Linecode=1P_OH_AL_4/0_Zuzara_0_416_0_2_2

New Line.l(r:p1rdt9544lv-p1rlv20647) Units=km Length=0.035205 bus1=p1rdt9544lv.1.2 bus2=p1rlv20647.1.2 switch=n enabled=y phases=2 Linecode=1P_OH_AL_4/0_Zuzara_0_416_0_2_2

New Line.l(r:p1rdt9544lv-p1rlv20653) Units=km Length=0.0371707 bus1=p1rdt9544lv.1.2 bus2=p1rlv20653.1.2 switch=n enabled=y phases=2 Linecode=1P_OH_AL_4/0_Zuzara_0_416_0_2_2

New Line.l(r:p1rdt9544lv-p1rlv21418) Units=km Length=0.109049 bus1=p1rdt9544lv.1.2 bus2=p1rlv21418.1.2 switch=n enabled=y phases=2 Linecode=1P_OH_AL_4/0_Zuzara_0_416_0_2_2

New Line.l(r:p1rdt9545lv-p1rlv20648) Units=km Length=0.026502100000000004 bus1=p1rdt9545lv.1.2 bus2=p1rlv20648.1.2 switch=n enabled=y phases=2 Linecode=1P_UG_AL_1/0_Brenau_0_416_0_2_2

New Line.l(r:p1rdt9546lv-p1rlv20650) Units=km Length=0.00365636 bus1=p1rdt9546lv.1.2 bus2=p1rlv20650.1.2 switch=n enabled=y phases=2 Linecode=1P_OH_AL_4_Periwinkle_0_416_0_2_2

New Line.l(r:p1rdt9549lv-p1rlv20654) Units=km Length=0.0438284 bus1=p1rdt9549lv.1.2 bus2=p1rlv20654.1.2 switch=n enabled=y phases=2 Linecode=1P_OH_AL_4/0_Zuzara_0_416_0_2_2

New Line.l(r:p1rdt9552lv-p1rlv20657) Units=km Length=0.00937934 bus1=p1rdt9552lv.1.2 bus2=p1rlv20657.1.2 switch=n enabled=y phases=2 Linecode=1P_OH_AL_2/0_Rucina_0_416_0_2_2

New Line.l(r:p1rdt9554lv-p1rlv20659) Units=km Length=0.00814612 bus1=p1rdt9554lv.1.2 bus2=p1rlv20659.1.2 switch=n enabled=y phases=2 Linecode=1P_OH_AL_2/0_Rucina_0_416_0_2_2

New Line.l(r:p1rdt9555lv-p1rlv20661) Units=km Length=0.00332778 bus1=p1rdt9555lv.1.2 bus2=p1rlv20661.1.2 switch=n enabled=y phases=2 Linecode=1P_UG_AL_4/0_Sweetbriar_0_416_0_2_2

New Line.l(r:p1rdt9556lv-p1rlv20663) Units=km Length=0.0395001 bus1=p1rdt9556lv.1.2 bus2=p1rlv20663.1.2 switch=n enabled=y phases=2 Linecode=1P_OH_AL_4/0_Zuzara_0_416_0_2_2

New Line.l(r:p1rdt9560lv-p1rlv20669) Units=km Length=0.0307404 bus1=p1rdt9560lv.1.2 bus2=p1rlv20669.1.2 switch=n enabled=y phases=2 Linecode=1P_OH_AL_4/0_Zuzara_0_416_0_2_2

New Line.l(r:p1rdt9560lv-p1rlv20671) Units=km Length=0.0428112 bus1=p1rdt9560lv.1.2 bus2=p1rlv20671.1.2 switch=n enabled=y phases=2 Linecode=1P_OH_AL_4/0_Zuzara_0_416_0_2_2

New Line.l(r:p1rdt9560lv-p1rlv20678) Units=km Length=0.0249583 bus1=p1rdt9560lv.1.2 bus2=p1rlv20678.1.2 switch=n enabled=y phases=2 Linecode=1P_OH_AL_2/0_Rucina_0_416_0_2_2

New Line.l(r:p1rdt9560lv-p1rlv20690) Units=km Length=0.031507 bus1=p1rdt9560lv.1.2 bus2=p1rlv20690.1.2 switch=n enabled=y phases=2 Linecode=1P_OH_AL_4/0_Zuzara_0_416_0_2_2

New Line.l(r:p1rdt9560lv-p1rlv20691) Units=km Length=0.0411438 bus1=p1rdt9560lv.1.2 bus2=p1rlv20691.1.2 switch=n enabled=y phases=2 Linecode=1P_OH_AL_4/0_Zuzara_0_416_0_2_2

New Line.l(r:p1rdt9568lv-p1rlv20684) Units=km Length=0.0895214 bus1=p1rdt9568lv.1.2 bus2=p1rlv20684.1.2 switch=n enabled=y phases=2 Linecode=1P_OH_AL_4/0_Zuzara_0_416_0_2_2

New Line.l(r:p1rdt9664lv-p1rlv20899) Units=km Length=0.0102775 bus1=p1rdt9664lv.1.2 bus2=p1rlv20899.1.2 switch=n enabled=y phases=2 Linecode=1P_OH_AL_2/0_Rucina_0_416_0_2_2

New Line.l(r:p1rdm21325-p1rlv20859) Units=km Length=0.00764493 bus1=p1rdm21325.1.2 bus2=p1rlv20859.1.2 switch=n enabled=y phases=2 Linecode=1P_OH_AL_2/0_Rucina_0_416_0_2_2

New Line.l(r:p1rdm21325-p1rdt9664lv) Units=km Length=0.056639400000000006 bus1=p1rdt9664lv.1.2 bus2=p1rdm21325.1.2 switch=n enabled=y phases=2 Linecode=1P_OH_AL_4/0_Zuzara_0_416_0_2_2

New Line.l(r:p1rdm21328-p1rlv20917) Units=km Length=0.00988444 bus1=p1rdm21328.1.2 bus2=p1rlv20917.1.2 switch=n enabled=y phases=2 Linecode=1P_OH_AL_2/0_Rucina_0_416_0_2_2

New Line.l(r:p1rdm21326-p1rlv20891) Units=km Length=0.0101022 bus1=p1rdm21326.1.2 bus2=p1rlv20891.1.2 switch=n enabled=y phases=2 Linecode=1P_OH_AL_2/0_Rucina_0_416_0_2_2

New Line.l(r:p1rdm21326-p1rdm21328) Units=km Length=0.019912 bus1=p1rdm21328.1.2 bus2=p1rdm21326.1.2 switch=n enabled=y phases=2 Linecode=1P_OH_AL_2/0_Rucina_0_416_0_2_2

New Line.l(r:p1rdm21328-p1rdt9664lv) Units=km Length=0.0199252 bus1=p1rdt9664lv.1.2 bus2=p1rdm21328.1.2 switch=n enabled=y phases=2 Linecode=1P_OH_AL_2/0_Rucina_0_416_0_2_2

New Line.l(r:p1rdt9672lv-p1rlv20870) Units=km Length=0.0360517 bus1=p1rdt9672lv.1.2 bus2=p1rlv20870.1.2 switch=n enabled=y phases=2 Linecode=1P_OH_AL_4/0_Zuzara_0_416_0_2_2

New Line.l(r:p1rdt9672lv-p1rlv20883) Units=km Length=0.0179511 bus1=p1rdt9672lv.1.2 bus2=p1rlv20883.1.2 switch=n enabled=y phases=2 Linecode=1P_OH_AL_2/0_Rucina_0_416_0_2_2

New Line.l(r:p1rdt9672lv-p1rlv20904) Units=km Length=0.0429437 bus1=p1rdt9672lv.1.2 bus2=p1rlv20904.1.2 switch=n enabled=y phases=2 Linecode=1P_OH_AL_4/0_Zuzara_0_416_0_2_2

New Line.l(r:p1rdm21344-p1rlv20871) Units=km Length=0.06554810000000001 bus1=p1rdm21344.1.2 bus2=p1rlv20871.1.2 switch=n enabled=y phases=2 Linecode=1P_OH_AL_4/0_Zuzara_0_416_0_2_2

New Line.l(r:p1rdm21344-p1rdt9673lv) Units=km Length=0.024764900000000003 bus1=p1rdt9673lv.1.2 bus2=p1rdm21344.1.2 switch=n enabled=y phases=2 Linecode=1P_OH_AL_2/0_Rucina_0_416_0_2_2

New Line.l(r:p1rdm21345-p1rlv20913) Units=km Length=0.131815 bus1=p1rdm21345.1.2 bus2=p1rlv20913.1.2 switch=n enabled=y phases=2 Linecode=1P_OH_AL_4/0_Zuzara_0_416_0_2_2

New Line.l(r:p1rdm21345-p1rdt9673lv) Units=km Length=0.0334973 bus1=p1rdt9673lv.1.2 bus2=p1rdm21345.1.2 switch=n enabled=y phases=2 Linecode=1P_OH_AL_4/0_Zuzara_0_416_0_2_2

New Line.l(r:p1rdt9682lv-p1rlv20884) Units=km Length=0.0733622 bus1=p1rdt9682lv.1.2 bus2=p1rlv20884.1.2 switch=n enabled=y phases=2 Linecode=1P_OH_AL_4/0_Zuzara_0_416_0_2_2

New Line.l(r:p1rdt9682lv-p1rlv20911) Units=km Length=0.08503010000000001 bus1=p1rdt9682lv.1.2 bus2=p1rlv20911.1.2 switch=n enabled=y phases=2 Linecode=1P_OH_AL_4/0_Zuzara_0_416_0_2_2

New Line.l(r:p1rdt9683lv-p1rlv20886) Units=km Length=0.0166491 bus1=p1rdt9683lv.1.2 bus2=p1rlv20886.1.2 switch=n enabled=y phases=2 Linecode=1P_OH_AL_2/0_Rucina_0_416_0_2_2

New Line.l(r:p1rdt9683lv-p1rlv20900) Units=km Length=0.0326505 bus1=p1rdt9683lv.1.2 bus2=p1rlv20900.1.2 switch=n enabled=y phases=2 Linecode=1P_OH_AL_4/0_Zuzara_0_416_0_2_2

New Line.l(r:p1rdm21365-p1rlv23635) Units=km Length=0.0358034 bus1=p1rdm21365.1.2 bus2=p1rlv23635.1.2 switch=n enabled=y phases=2 Linecode=1P_OH_AL_4/0_Zuzara_0_416_0_2_2

New Line.l(r:p1rdm21365-p1rdt9683lv) Units=km Length=0.0199211 bus1=p1rdt9683lv.1.2 bus2=p1rdm21365.1.2 switch=n enabled=y phases=2 Linecode=1P_OH_AL_2/0_Rucina_0_416_0_2_2

New Line.l(r:p1rdt9684lv-p1rlv20914) Units=km Length=0.071251 bus1=p1rdt9684lv.1.2 bus2=p1rlv20914.1.2 switch=n enabled=y phases=2 Linecode=1P_OH_AL_4/0_Zuzara_0_416_0_2_2

New Line.l(r:p1rdm21366-p1rlv20888) Units=km Length=0.00638383 bus1=p1rdm21366.1.2 bus2=p1rlv20888.1.2 switch=n enabled=y phases=2 Linecode=1P_OH_AL_2/0_Rucina_0_416_0_2_2

New Line.l(r:p1rdm21366-p1rlv20903) Units=km Length=0.0618997 bus1=p1rdm21366.1.2 bus2=p1rlv20903.1.2 switch=n enabled=y phases=2 Linecode=1P_OH_AL_4/0_Zuzara_0_416_0_2_2

New Line.l(r:p1rdm21366-p1rdt9684lv) Units=km Length=0.03775610000000001 bus1=p1rdt9684lv.1.2 bus2=p1rdm21366.1.2 switch=n enabled=y phases=2 Linecode=1P_OH_AL_4/0_Zuzara_0_416_0_2_2

New Line.l(r:p1rdm21367-p1rlv20892) Units=km Length=0.0536907 bus1=p1rdm21367.1.2 bus2=p1rlv20892.1.2 switch=n enabled=y phases=2 Linecode=1P_OH_AL_4/0_Zuzara_0_416_0_2_2

New Line.l(r:p1rdm21367-p1rlv20894) Units=km Length=0.0621758 bus1=p1rdm21367.1.2 bus2=p1rlv20894.1.2 switch=n enabled=y phases=2 Linecode=1P_OH_AL_4/0_Zuzara_0_416_0_2_2

New Line.l(r:p1rdm21367-p1rlv20921) Units=km Length=0.047056 bus1=p1rdm21367.1.2 bus2=p1rlv20921.1.2 switch=n enabled=y phases=2 Linecode=1P_OH_AL_4/0_Zuzara_0_416_0_2_2

New Line.l(r:p1rdm21369-p1rlv20897) Units=km Length=0.0584975 bus1=p1rdm21369.1.2 bus2=p1rlv20897.1.2 switch=n enabled=y phases=2 Linecode=1P_OH_AL_4/0_Zuzara_0_416_0_2_2

New Line.l(r:p1rdm21367-p1rdm21369) Units=km Length=0.0198946 bus1=p1rdm21367.1.2 bus2=p1rdm21369.1.2 switch=n enabled=y phases=2 Linecode=1P_OH_AL_2/0_Rucina_0_416_0_2_2

New Line.l(r:p1rdm21367-p1rdt9684lv) Units=km Length=0.01989 bus1=p1rdt9684lv.1.2 bus2=p1rdm21367.1.2 switch=n enabled=y phases=2 Linecode=1P_OH_AL_2/0_Rucina_0_416_0_2_2

New Line.l(r:p1rdt9685lv-p1rlv20889) Units=km Length=0.0378306 bus1=p1rdt9685lv.1.2 bus2=p1rlv20889.1.2 switch=n enabled=y phases=2 Linecode=1P_OH_AL_4/0_Zuzara_0_416_0_2_2

New Line.l(r:p1rdt9696lv-p1rlv20928) Units=km Length=0.07395140000000001 bus1=p1rdt9696lv.1.2 bus2=p1rlv20928.1.2 switch=n enabled=y phases=2 Linecode=1P_OH_AL_4/0_Zuzara_0_416_0_2_2

New Line.l(r:p1rdm21403-p1rlv20949) Units=km Length=0.00783056 bus1=p1rdm21403.1.2 bus2=p1rlv20949.1.2 switch=n enabled=y phases=2 Linecode=1P_OH_AL_2/0_Rucina_0_416_0_2_2

New Line.l(r:p1rdm21403-p1rdt9707lv) Units=km Length=0.0191316 bus1=p1rdt9707lv.1.2 bus2=p1rdm21403.1.2 switch=n enabled=y phases=2 Linecode=1P_OH_AL_2/0_Rucina_0_416_0_2_2

New Line.l(r:p1rdm21404-p1rlv20951) Units=km Length=0.0299848 bus1=p1rdm21404.1.2 bus2=p1rlv20951.1.2 switch=n enabled=y phases=2 Linecode=1P_OH_AL_4/0_Zuzara_0_416_0_2_2

New Line.l(r:p1rdm21404-p1rdt9707lv) Units=km Length=0.038268 bus1=p1rdt9707lv.1.2 bus2=p1rdm21404.1.2 switch=n enabled=y phases=2 Linecode=1P_OH_AL_4/0_Zuzara_0_416_0_2_2

New Line.l(r:p1rdm21405-p1rlv20950) Units=km Length=0.0124182 bus1=p1rdm21405.1.2 bus2=p1rlv20950.1.2 switch=n enabled=y phases=2 Linecode=1P_OH_AL_2/0_Rucina_0_416_0_2_2

New Line.l(r:p1rdm21405-p1rdt9708lv) Units=km Length=0.0123651 bus1=p1rdt9708lv.1.2 bus2=p1rdm21405.1.2 switch=n enabled=y phases=2 Linecode=1P_OH_AL_2/0_Rucina_0_416_0_2_2

New Line.l(r:p1rdm21406-p1rlv20958) Units=km Length=0.0120252 bus1=p1rdm21406.1.2 bus2=p1rlv20958.1.2 switch=n enabled=y phases=2 Linecode=1P_OH_AL_2/0_Rucina_0_416_0_2_2

New Line.l(r:p1rdm21406-p1rlv20963) Units=km Length=0.00661185 bus1=p1rdm21406.1.2 bus2=p1rlv20963.1.2 switch=n enabled=y phases=2 Linecode=1P_OH_AL_2/0_Rucina_0_416_0_2_2

New Line.l(r:p1rdm21406-p1rdt9708lv) Units=km Length=0.0123651 bus1=p1rdt9708lv.1.2 bus2=p1rdm21406.1.2 switch=n enabled=y phases=2 Linecode=1P_OH_AL_2/0_Rucina_0_416_0_2_2

New Line.l(r:p1rdt9710lv-p1rlv20957) Units=km Length=0.00391564 bus1=p1rdt9710lv.1.2 bus2=p1rlv20957.1.2 switch=n enabled=y phases=2 Linecode=1P_OH_AL_4_Periwinkle_0_416_0_2_2

New Line.l(r:p1rdm21409-p1rlv20953) Units=km Length=0.03602860000000001 bus1=p1rdm21409.1.2 bus2=p1rlv20953.1.2 switch=n enabled=y phases=2 Linecode=1P_OH_AL_4/0_Zuzara_0_416_0_2_2

New Line.l(r:p1rdm21409-p1rdt9710lv) Units=km Length=0.0783411 bus1=p1rdt9710lv.1.2 bus2=p1rdm21409.1.2 switch=n enabled=y phases=2 Linecode=1P_OH_AL_4/0_Zuzara_0_416_0_2_2

New Line.l(r:p1rdt9711lv-p1rlv20954) Units=km Length=0.0234253 bus1=p1rdt9711lv.1.2 bus2=p1rlv20954.1.2 switch=n enabled=y phases=2 Linecode=1P_OH_AL_2/0_Rucina_0_416_0_2_2

New Line.l(r:p1rdt9711lv-p1rlv20955) Units=km Length=0.0127203 bus1=p1rdt9711lv.1.2 bus2=p1rlv20955.1.2 switch=n enabled=y phases=2 Linecode=1P_OH_AL_2/0_Rucina_0_416_0_2_2

New Line.l(r:p1rdt9712lv-p1rlv20959) Units=km Length=0.0334831 bus1=p1rdt9712lv.1.2 bus2=p1rlv20959.1.2 switch=n enabled=y phases=2 Linecode=1P_OH_AL_4/0_Zuzara_0_416_0_2_2

New Line.l(r:p1rdm21413-p1rlv20956) Units=km Length=0.032978 bus1=p1rdm21413.1.2 bus2=p1rlv20956.1.2 switch=n enabled=y phases=2 Linecode=1P_OH_AL_4/0_Zuzara_0_416_0_2_2

New Line.l(r:p1rdm21413-p1rdt9712lv) Units=km Length=0.013128400000000002 bus1=p1rdt9712lv.1.2 bus2=p1rdm21413.1.2 switch=n enabled=y phases=2 Linecode=1P_OH_AL_2/0_Rucina_0_416_0_2_2

New Line.l(r:p1rdt9713lv-p1rlv20960) Units=km Length=0.00200898 bus1=p1rdt9713lv.1.2 bus2=p1rlv20960.1.2 switch=n enabled=y phases=2 Linecode=1P_OH_AL_4_Periwinkle_0_416_0_2_2

New Line.l(r:p1rdt9721lv-p1rlv20970) Units=km Length=0.0344974 bus1=p1rdt9721lv.1.2 bus2=p1rlv20970.1.2 switch=n enabled=y phases=2 Linecode=1P_OH_AL_4/0_Zuzara_0_416_0_2_2

New Line.l(r:p1rdt9721lv-p1rlv20977) Units=km Length=0.00430755 bus1=p1rdt9721lv.1.2 bus2=p1rlv20977.1.2 switch=n enabled=y phases=2 Linecode=1P_OH_AL_2/0_Rucina_0_416_0_2_2

New Line.l(r:p1rdt9721lv-p1rlv21015) Units=km Length=0.0316699 bus1=p1rdt9721lv.1.2 bus2=p1rlv21015.1.2 switch=n enabled=y phases=2 Linecode=1P_OH_AL_4/0_Zuzara_0_416_0_2_2

New Line.l(r:p1rdt9721lv-p1rlv21025) Units=km Length=0.0432692 bus1=p1rdt9721lv.1.2 bus2=p1rlv21025.1.2 switch=n enabled=y phases=2 Linecode=1P_OH_AL_4/0_Zuzara_0_416_0_2_2

New Line.l(r:p1rdt9721lv-p1rlv21693) Units=km Length=0.0298212 bus1=p1rdt9721lv.1.2 bus2=p1rlv21693.1.2 switch=n enabled=y phases=2 Linecode=1P_OH_AL_4/0_Zuzara_0_416_0_2_2

New Line.l(r:p1rdt9721lv-p1rlv21729) Units=km Length=0.045209 bus1=p1rdt9721lv.1.2 bus2=p1rlv21729.1.2 switch=n enabled=y phases=2 Linecode=1P_OH_AL_4/0_Zuzara_0_416_0_2_2

New Line.l(r:p1rdm21431-p1rlv20972) Units=km Length=0.0109534 bus1=p1rdm21431.1.2 bus2=p1rlv20972.1.2 switch=n enabled=y phases=2 Linecode=1P_OH_AL_2/0_Rucina_0_416_0_2_2

New Line.l(r:p1rdm21431-p1rdt9723lv) Units=km Length=0.0197297 bus1=p1rdt9723lv.1.2 bus2=p1rdm21431.1.2 switch=n enabled=y phases=2 Linecode=1P_OH_AL_2/0_Rucina_0_416_0_2_2

New Line.l(r:p1rdm21432-p1rlv20990) Units=km Length=0.0382539 bus1=p1rdm21432.1.2 bus2=p1rlv20990.1.2 switch=n enabled=y phases=2 Linecode=1P_OH_AL_4/0_Zuzara_0_416_0_2_2

New Line.l(r:p1rdm21432-p1rdt9723lv) Units=km Length=0.0197199 bus1=p1rdt9723lv.1.2 bus2=p1rdm21432.1.2 switch=n enabled=y phases=2 Linecode=1P_OH_AL_2/0_Rucina_0_416_0_2_2

New Line.l(r:p1rdt9731lv-p1rlv21027) Units=km Length=0.0102771 bus1=p1rdt9731lv.1.2 bus2=p1rlv21027.1.2 switch=n enabled=y phases=2 Linecode=1P_OH_AL_2/0_Rucina_0_416_0_2_2

New Line.l(r:p1rdm21448-p1rlv20981) Units=km Length=0.0525888 bus1=p1rdm21448.1.2 bus2=p1rlv20981.1.2 switch=n enabled=y phases=2 Linecode=1P_OH_AL_4/0_Zuzara_0_416_0_2_2

New Line.l(r:p1rdm21448-p1rdt9731lv) Units=km Length=0.019727700000000004 bus1=p1rdt9731lv.1.2 bus2=p1rdm21448.1.2 switch=n enabled=y phases=2 Linecode=1P_OH_AL_2/0_Rucina_0_416_0_2_2

New Line.l(r:p1rdt9742lv-p1rlv21014) Units=km Length=0.086176 bus1=p1rdt9742lv.1.2 bus2=p1rlv21014.1.2 switch=n enabled=y phases=2 Linecode=1P_OH_AL_4/0_Zuzara_0_416_0_2_2

New Line.l(r:p1rdm21466-p1rlv20996) Units=km Length=0.079568 bus1=p1rdm21466.1.2 bus2=p1rlv20996.1.2 switch=n enabled=y phases=2 Linecode=1P_OH_AL_4/0_Zuzara_0_416_0_2_2

New Line.l(r:p1rdm21466-p1rdt9742lv) Units=km Length=0.039449700000000004 bus1=p1rdt9742lv.1.2 bus2=p1rdm21466.1.2 switch=n enabled=y phases=2 Linecode=1P_OH_AL_4/0_Zuzara_0_416_0_2_2

New Line.l(r:p1rdm21467-p1rlv21010) Units=km Length=0.0565357 bus1=p1rdm21467.1.2 bus2=p1rlv21010.1.2 switch=n enabled=y phases=2 Linecode=1P_OH_AL_4/0_Zuzara_0_416_0_2_2

New Line.l(r:p1rdm21467-p1rdt9742lv) Units=km Length=0.0197297 bus1=p1rdt9742lv.1.2 bus2=p1rdm21467.1.2 switch=n enabled=y phases=2 Linecode=1P_OH_AL_2/0_Rucina_0_416_0_2_2

New Line.l(r:p1rdt9776lv-p1rlv21056) Units=km Length=0.0580476 bus1=p1rdt9776lv.1.2 bus2=p1rlv21056.1.2 switch=n enabled=y phases=2 Linecode=1P_OH_AL_4/0_Zuzara_0_416_0_2_2

New Line.l(r:p1rdt9776lv-p1rlv21080) Units=km Length=0.024000600000000004 bus1=p1rdt9776lv.1.2 bus2=p1rlv21080.1.2 switch=n enabled=y phases=2 Linecode=1P_OH_AL_2/0_Rucina_0_416_0_2_2

New Line.l(r:p1rdt9776lv-p1rlv21111) Units=km Length=0.057454200000000004 bus1=p1rdt9776lv.1.2 bus2=p1rlv21111.1.2 switch=n enabled=y phases=2 Linecode=1P_OH_AL_4/0_Zuzara_0_416_0_2_2

New Line.l(r:p1rdt9776lv-p1rlv21120) Units=km Length=0.0124089 bus1=p1rdt9776lv.1.2 bus2=p1rlv21120.1.2 switch=n enabled=y phases=2 Linecode=1P_OH_AL_2/0_Rucina_0_416_0_2_2

...